DSS/FLX_LinesMV.dss
new line.MV3PFLX0 bus1=BUSMVFLX1.1.2.3 bus2=BUSMVFLX4.1.2.3 geometry=3FMV3/0AAC3/0AAC_H length=4.0257 units=m  !1ph_basekV=19.9186
new line.MV3PFLX1 bus1=BUSMVFLX3.1.2.3 bus2=BUSMVFLX2.1.2.3 geometry=3FMV4CU3/0AAC_H length=1.3673 units=m  !1ph_basekV=19.9186
new line.MV3PFLX2 bus1=BUSMVFLX4.1.2.3 bus2=BUSMVFLX3.1.2.3 geometry=3FMV4CU3/0AAC_H length=2.2526 units=m  !1ph_basekV=19.9186
new line.MV1PFLX3 bus1=BUSMVFLX73.1 bus2=BUSMVFLX72.1 geometry=1FMV4CU3/0AAC_M length=1.2433 units=m  !1ph_basekV=19.9186
new line.MV1PFLX4 bus1=BUSMVFLX4.1 bus2=BUSMVFLX73.1 geometry=1FMV4CU3/0AAC_M length=2.2528 units=m  !1ph_basekV=19.9186
new line.MV3PFLX5 bus1=BUSMVFLX4.1.2.3 bus2=BUSMVFLX7.1.2.3 geometry=3FMV3/0AAC3/0AAC_H length=94.1294 units=m  !1ph_basekV=19.9186
new line.MV3PFLX6 bus1=BUSMVFLX6.1.2.3 bus2=BUSMVFLX5.1.2.3 geometry=3FMV3/0AAC3/0AAC_H length=3.4033 units=m  !1ph_basekV=19.9186
new line.MV3PFLX7 bus1=BUSMVFLX6.1.2.3 bus2=BUSMVFLX69.1.2.3 geometry=3FMV477AAC3/0AAC_H length=1.8653 units=m  !1ph_basekV=19.9186
new line.MV3PFLX8 bus1=BUSMVFLX8.1.2.3 bus2=BUSMVFLX6.1.2.3 geometry=3FMV477AAC3/0AAC_H length=280.4236 units=m  !1ph_basekV=19.9186
new line.MV3PFLX9 bus1=BUSMVFLX7.1.2.3 bus2=BUSMVFLX9.1.2.3 geometry=3FMV477AAC3/0AAC_H length=178.4589 units=m  !1ph_basekV=19.9186
new line.MV1PFLX10 bus1=BUSMVFLX8.1 bus2=BUSMVFLX74.1 geometry=1FMV4CU3/0AAC_M length=2.6948 units=m  !1ph_basekV=19.9186
new line.MV1PFLX11 bus1=BUSMVFLX74.1 bus2=BUSMVFLX75.1 geometry=1FMV4CU3/0AAC_M length=1.8925 units=m  !1ph_basekV=19.9186
new line.MV3PFLX12 bus1=BUSMVFLX11.1.2.3 bus2=BUSMVFLX8.1.2.3 geometry=3FMV477AAC3/0AAC_H length=19.3575 units=m  !1ph_basekV=19.9186
new line.MV3PFLX13 bus1=BUSMVFLX9.1.2.3 bus2=BUSMVFLX10.1.2.3 geometry=3FMV477AAC3/0AAC_H length=7.2978 units=m  !1ph_basekV=19.9186
new line.MV3PFLX14 bus1=BUSMVFLX10.1.2.3 bus2=BUSMVFLX11.1.2.3 geometry=3FMV477AAC3/0AAC_H length=32.1583 units=m  !1ph_basekV=19.9186
new line.MV3PFLX15 bus1=BUSMVFLX10.1.2.3 bus2=BUSMVFLX13.1.2.3 geometry=3FMV477AAC3/0AAC_H length=66.8005 units=m  !1ph_basekV=19.9186
new line.MV3PFLX16 bus1=BUSMVFLX11.1.2.3 bus2=BUSMVFLX12.1.2.3 geometry=3FMV3/0AAC3/0AAC_H length=36.3537 units=m  !1ph_basekV=19.9186
new line.MV1PFLX17 bus1=BUSMVFLX13.2 bus2=BUSMVFLX76.2 geometry=1FMV4CU3/0AAC_M length=1.4790 units=m  !1ph_basekV=19.9186
new line.MV1PFLX18 bus1=BUSMVFLX76.2 bus2=BUSMVFLX77.2 geometry=1FMV4CU3/0AAC_M length=3.6173 units=m  !1ph_basekV=19.9186
new line.MV3PFLX19 bus1=BUSMVFLX13.1.2.3 bus2=BUSMVFLX14.1.2.3 geometry=3FMV477AAC3/0AAC_H length=284.5349 units=m  !1ph_basekV=19.9186
new line.MV3PFLX20 bus1=BUSMVFLX14.1.2.3 bus2=BUSMVFLX15.1.2.3 geometry=3FMV4CU3/0AAC_H length=1.8537 units=m  !1ph_basekV=19.9186
new line.MV3PFLX21 bus1=BUSMVFLX14.1.2.3 bus2=BUSMVFLX17.1.2.3 geometry=3FMV477AAC3/0AAC_H length=6.4031 units=m  !1ph_basekV=19.9186
new line.MV3PFLX22 bus1=BUSMVFLX15.1.2.3 bus2=BUSMVFLX16.1.2.3 geometry=3FMV4CU3/0AAC_H length=1.7585 units=m  !1ph_basekV=19.9186
new line.MV3PFLX23 bus1=BUSMVFLX17.1.2.3 bus2=BUSMVFLX18.1.2.3 geometry=3FMV266AAC3/0AAC_H length=97.7041 units=m  !1ph_basekV=19.9186
new line.MV3PFLX24 bus1=BUSMVFLX18.1.2.3 bus2=BUSMVFLX19.1.2.3 geometry=3FMV4CU3/0AAC_H length=1.3361 units=m  !1ph_basekV=19.9186
new line.MV3PFLX25 bus1=BUSMVFLX18.1.2.3 bus2=BUSMVFLX27.1.2.3 geometry=3FMV266AAC3/0AAC_H length=446.9720 units=m  !1ph_basekV=19.9186
new line.MV3PFLX26 bus1=BUSMVFLX19.1.2.3 bus2=BUSMVFLX71.1.2.3 geometry=3FMV1/0CU_35XLP length=8.5022 units=m  !1ph_basekV=19.9186
new line.MV3PFLX27 bus1=BUSMVFLX21.1.2.3 bus2=BUSMVFLX20.1.2.3 geometry=3FMV477AAC3/0AAC_H length=77.9643 units=m  !1ph_basekV=19.9186
new line.MV1PFLX28 bus1=BUSMVFLX21.1 bus2=BUSMVFLX78.1 geometry=1FMV4CU4CU_M length=28.2477 units=m  !1ph_basekV=19.9186
new line.MV3PFLX29 bus1=BUSMVFLX23.1.2.3 bus2=BUSMVFLX21.1.2.3 geometry=3FMV477AAC3/0AAC_H length=113.2475 units=m  !1ph_basekV=19.9186
new line.MV3PFLX30 bus1=BUSMVFLX23.1.2.3 bus2=BUSMVFLX22.1.2.3 geometry=3FMV3/0AAC3/0AAC_H length=12.9769 units=m  !1ph_basekV=19.9186
new line.MV3PFLX31 bus1=BUSMVFLX22.1.2.3 bus2=BUSMVFLX70.1.2.3 geometry=3FMV1/0CU_15EPR length=81.7018 units=m  !1ph_basekV=19.9186
new line.MV3PFLX32 bus1=BUSMVFLX24.1.2.3 bus2=BUSMVFLX23.1.2.3 geometry=3FMV477AAC3/0AAC_H length=136.4650 units=m  !1ph_basekV=19.9186
new line.MV3PFLX33 bus1=BUSMVFLX25.1.2.3 bus2=BUSMVFLX24.1.2.3 geometry=3FMV477AAC3/0AAC_H length=1.0879 units=m  !1ph_basekV=19.9186
new line.MV1PFLX34 bus1=BUSMVFLX25.1 bus2=BUSMVFLX79.1 geometry=1FMV3/0AAC3/0AAC_M length=1.9571 units=m  !1ph_basekV=19.9186
new line.MV3PFLX35 bus1=BUSMVFLX26.1.2.3 bus2=BUSMVFLX25.1.2.3 geometry=3FMV477AAC3/0AAC_H length=238.5011 units=m  !1ph_basekV=19.9186
new line.MV1PFLX36 bus1=BUSMVFLX79.1 bus2=BUSMVFLX121.1 geometry=1FMV1/0CU_35EPR length=82.7758 units=m  !1ph_basekV=19.9186
new line.MV1PFLX37 bus1=BUSMVFLX26.3 bus2=BUSMVFLX82.3 geometry=1FMV4CU3/0AAC_M length=3.0084 units=m  !1ph_basekV=19.9186
new line.MV3PFLX38 bus1=BUSMVFLX31.1.2.3 bus2=BUSMVFLX26.1.2.3 geometry=3FMV477AAC3/0AAC_H length=57.3048 units=m  !1ph_basekV=19.9186
new line.MV1PFLX39 bus1=BUSMVFLX81.1 bus2=BUSMVFLX80.1 geometry=1FMV4CU3/0AAC_M length=1.9140 units=m  !1ph_basekV=19.9186
new line.MV1PFLX40 bus1=BUSMVFLX29.1 bus2=BUSMVFLX81.1 geometry=1FMV4CU3/0AAC_M length=8.6256 units=m  !1ph_basekV=19.9186
new line.MV1PFLX41 bus1=BUSMVFLX82.3 bus2=BUSMVFLX83.3 geometry=1FMV4CU3/0AAC_M length=2.6552 units=m  !1ph_basekV=19.9186
new line.MV3PFLX42 bus1=BUSMVFLX27.1.2.3 bus2=BUSMVFLX28.1.2.3 geometry=3FMV266AAC3/0AAC_H length=1.5779 units=m  !1ph_basekV=19.9186
new line.MV3PFLX43 bus1=BUSMVFLX28.1.2.3 bus2=BUSMVFLX29.1.2.3 geometry=3FMV266AAC3/0AAC_H length=1.0440 units=m  !1ph_basekV=19.9186
new line.MV3PFLX44 bus1=BUSMVFLX28.1.2.3 bus2=BUSMVFLX30.1.2.3 geometry=3FMV266AAC3/0AAC_H length=4.2192 units=m  !1ph_basekV=19.9186
new line.MV3PFLX45 bus1=BUSMVFLX29.1.2.3 bus2=BUSMVFLX31.1.2.3 geometry=3FMV266AAC3/0AAC_H length=18.1689 units=m  !1ph_basekV=19.9186
new line.MV3PFLX46 bus1=BUSMVFLX31.1.2.3 bus2=BUSMVFLX32.1.2.3 geometry=3FMV266AAC3/0AAC_H length=35.3931 units=m  !1ph_basekV=19.9186
new line.MV3PFLX47 bus1=BUSMVFLX32.1.2.3 bus2=BUSMVFLX33.1.2.3 geometry=3FMV266AAC3/0AAC_H length=47.4987 units=m  !1ph_basekV=19.9186
new line.MV1PFLX48 bus1=BUSMVFLX85.1 bus2=BUSMVFLX84.1 geometry=1FMV4CU3/0AAC_M length=1.8637 units=m  !1ph_basekV=19.9186
new line.MV1PFLX49 bus1=BUSMVFLX33.1 bus2=BUSMVFLX85.1 geometry=1FMV4CU3/0AAC_M length=2.2545 units=m  !1ph_basekV=19.9186
new line.MV3PFLX50 bus1=BUSMVFLX33.1.2.3 bus2=BUSMVFLX34.1.2.3 geometry=3FMV266AAC3/0AAC_H length=58.8427 units=m  !1ph_basekV=19.9186
new line.MV3PFLX51 bus1=BUSMVFLX34.1.2.3 bus2=BUSMVFLX35.1.2.3 geometry=3FMV266AAC3/0AAC_H length=52.3694 units=m  !1ph_basekV=19.9186
new line.MV1PFLX52 bus1=BUSMVFLX87.2 bus2=BUSMVFLX86.2 geometry=1FMV4CU3/0AAC_M length=3.2951 units=m  !1ph_basekV=19.9186
new line.MV1PFLX53 bus1=BUSMVFLX35.2 bus2=BUSMVFLX87.2 geometry=1FMV4CU3/0AAC_M length=3.1427 units=m  !1ph_basekV=19.9186
new line.MV3PFLX54 bus1=BUSMVFLX35.1.2.3 bus2=BUSMVFLX40.1.2.3 geometry=3FMV266AAC3/0AAC_H length=103.8359 units=m  !1ph_basekV=19.9186
new line.MV3PFLX55 bus1=BUSMVFLX37.1.2.3 bus2=BUSMVFLX36.1.2.3 geometry=3FMV4CU4CU_H length=1.3569 units=m  !1ph_basekV=19.9186
new line.MV3PFLX56 bus1=BUSMVFLX38.1.2.3 bus2=BUSMVFLX37.1.2.3 geometry=3FMV4CU4CU_H length=1.2860 units=m  !1ph_basekV=19.9186
new line.MV3PFLX57 bus1=BUSMVFLX38.1.2.3 bus2=BUSMVFLX39.1.2.3 geometry=3FMV3/0AAC3/0AAC_H length=0.5121 units=m  !1ph_basekV=19.9186
new line.MV3PFLX58 bus1=BUSMVFLX40.1.2.3 bus2=BUSMVFLX38.1.2.3 geometry=3FMV3/0AAC3/0AAC_H length=12.6315 units=m  !1ph_basekV=19.9186
new line.MV3PFLX59 bus1=BUSMVFLX40.1.2.3 bus2=BUSMVFLX41.1.2.3 geometry=3FMV266AAC3/0AAC_H length=24.8338 units=m  !1ph_basekV=19.9186
new line.MV3PFLX60 bus1=BUSMVFLX41.1.2.3 bus2=BUSMVFLX42.1.2.3 geometry=3FMV3/0AAC3/0AAC_H length=13.3638 units=m  !1ph_basekV=19.9186
new line.MV3PFLX61 bus1=BUSMVFLX41.1.2.3 bus2=BUSMVFLX43.1.2.3 geometry=3FMV266AAC3/0AAC_H length=85.4206 units=m  !1ph_basekV=19.9186
new line.MV3PFLX62 bus1=BUSMVFLX42.1.2.3 bus2=BUSMVFLX44.1.2.3 geometry=3FMV3/0AAC3/0AAC_H length=103.3212 units=m  !1ph_basekV=19.9186
new line.MV1PFLX63 bus1=BUSMVFLX43.2 bus2=BUSMVFLX88.2 geometry=1FMV4CU3/0AAC_M length=2.7049 units=m  !1ph_basekV=19.9186
new line.MV3PFLX64 bus1=BUSMVFLX43.1.2.3 bus2=BUSMVFLX46.1.2.3 geometry=3FMV266AAC3/0AAC_H length=106.9076 units=m  !1ph_basekV=19.9186
new line.MV1PFLX65 bus1=BUSMVFLX88.2 bus2=BUSMVFLX89.2 geometry=1FMV4CU3/0AAC_M length=1.9630 units=m  !1ph_basekV=19.9186
new line.MV1PFLX66 bus1=BUSMVFLX44.3 bus2=BUSMVFLX90.3 geometry=1FMV3/0AAC3/0AAC_M length=3.1920 units=m  !1ph_basekV=19.9186
new line.MV3PFLX67 bus1=BUSMVFLX44.1.2.3 bus2=BUSMVFLX45.1.2.3 geometry=3FMV3/0AAC3/0AAC_H length=59.5488 units=m  !1ph_basekV=19.9186
new line.MV1PFLX68 bus1=BUSMVFLX90.3 bus2=BUSMVFLX95.3 geometry=1FMV3/0AAC3/0AAC_M length=57.0719 units=m  !1ph_basekV=19.9186
new line.MV1PFLX69 bus1=BUSMVFLX92.1 bus2=BUSMVFLX91.1 geometry=1FMV4CU3/0AAC_M length=3.8309 units=m  !1ph_basekV=19.9186
new line.MV1PFLX70 bus1=BUSMVFLX93.1 bus2=BUSMVFLX92.1 geometry=1FMV4CU3/0AAC_M length=3.5873 units=m  !1ph_basekV=19.9186
new line.MV1PFLX71 bus1=BUSMVFLX49.1 bus2=BUSMVFLX93.1 geometry=1FMV3/0AAC3/0AAC_M length=89.8051 units=m  !1ph_basekV=19.9186
new line.MV1PFLX72 bus1=BUSMVFLX95.3 bus2=BUSMVFLX94.3 geometry=1FMV4CU3/0AAC_M length=1.8550 units=m  !1ph_basekV=19.9186
new line.MV1PFLX73 bus1=BUSMVFLX94.3 bus2=BUSMVFLX96.3 geometry=1FMV4CU3/0AAC_M length=1.1709 units=m  !1ph_basekV=19.9186
new line.MV1PFLX74 bus1=BUSMVFLX95.3 bus2=BUSMVFLX103.3 geometry=1FMV3/0AAC3/0AAC_M length=44.1655 units=m  !1ph_basekV=19.9186
new line.MV1PFLX75 bus1=BUSMVFLX98.1 bus2=BUSMVFLX97.1 geometry=1FMV4CU3/0AAC_M length=1.9771 units=m  !1ph_basekV=19.9186
new line.MV1PFLX76 bus1=BUSMVFLX46.1 bus2=BUSMVFLX98.1 geometry=1FMV4CU3/0AAC_M length=2.3382 units=m  !1ph_basekV=19.9186
new line.MV1PFLX77 bus1=BUSMVFLX45.1 bus2=BUSMVFLX100.1 geometry=1FMV4CU3/0AAC_M length=5.2691 units=m  !1ph_basekV=19.9186
new line.MV3PFLX78 bus1=BUSMVFLX45.1.2.3 bus2=BUSMVFLX47.1.2.3 geometry=3FMV3/0AAC3/0AAC_H length=16.9201 units=m  !1ph_basekV=19.9186
new line.MV1PFLX79 bus1=BUSMVFLX100.1 bus2=BUSMVFLX99.1 geometry=1FMV4CU3/0AAC_M length=2.5855 units=m  !1ph_basekV=19.9186
new line.MV3PFLX80 bus1=BUSMVFLX46.1.2.3 bus2=BUSMVFLX52.1.2.3 geometry=3FMV266AAC3/0AAC_H length=56.7492 units=m  !1ph_basekV=19.9186
new line.MV3PFLX81 bus1=BUSMVFLX47.1.2.3 bus2=BUSMVFLX48.1.2.3 geometry=3FMV3/0AAC3/0AAC_H length=14.8701 units=m  !1ph_basekV=19.9186
new line.MV3PFLX82 bus1=BUSMVFLX47.1.2.3 bus2=BUSMVFLX49.1.2.3 geometry=3FMV3/0AAC3/0AAC_H length=33.3773 units=m  !1ph_basekV=19.9186
new line.MV1PFLX83 bus1=BUSMVFLX48.1 bus2=BUSMVFLX101.1 geometry=1FMV4CU3/0AAC_M length=2.6577 units=m  !1ph_basekV=19.9186
new line.MV3PFLX84 bus1=BUSMVFLX48.1.2.3 bus2=BUSMVFLX54.1.2.3 geometry=3FMV3/0AAC3/0AAC_H length=43.7608 units=m  !1ph_basekV=19.9186
new line.MV1PFLX85 bus1=BUSMVFLX101.1 bus2=BUSMVFLX102.1 geometry=1FMV4CU3/0AAC_M length=2.5077 units=m  !1ph_basekV=19.9186
new line.MV1PFLX86 bus1=BUSMVFLX103.3 bus2=BUSMVFLX104.3 geometry=1FMV3/0AAC3/0AAC_M length=66.8637 units=m  !1ph_basekV=19.9186
new line.MV1PFLX87 bus1=BUSMVFLX103.3 bus2=BUSMVFLX109.3 geometry=1FMV3/0AAC3/0AAC_M length=186.4350 units=m  !1ph_basekV=19.9186
new line.MV3PFLX88 bus1=BUSMVFLX49.1.2.3 bus2=BUSMVFLX53.1.2.3 geometry=3FMV3/0AAC3/0AAC_H length=20.6599 units=m  !1ph_basekV=19.9186
new line.MV3PFLX89 bus1=BUSMVFLX51.1.2.3 bus2=BUSMVFLX50.1.2.3 geometry=3FMV4CU3/0AAC_H length=2.9966 units=m  !1ph_basekV=19.9186
new line.MV3PFLX90 bus1=BUSMVFLX54.1.2.3 bus2=BUSMVFLX51.1.2.3 geometry=3FMV4CU3/0AAC_H length=2.5363 units=m  !1ph_basekV=19.9186
new line.MV3PFLX91 bus1=BUSMVFLX52.1.2.3 bus2=BUSMVFLX55.1.2.3 geometry=3FMV266AAC3/0AAC_H length=6.0707 units=m  !1ph_basekV=19.9186
new line.MV3PFLX92 bus1=BUSMVFLX53.1.2.3 bus2=BUSMVFLX56.1.2.3 geometry=3FMV3/0AAC3/0AAC_H length=72.0721 units=m  !1ph_basekV=19.9186
new line.MV3PFLX93 bus1=BUSMVFLX55.1.2.3 bus2=BUSMVFLX57.1.2.3 geometry=3FMV266AAC3/0AAC_H length=211.5477 units=m  !1ph_basekV=19.9186
new line.MV1PFLX94 bus1=BUSMVFLX55.3 bus2=BUSMVFLX113.3 geometry=1FMV3/0AAC3/0AAC_M length=152.3383 units=m  !1ph_basekV=19.9186
new line.MV1PFLX95 bus1=BUSMVFLX56.2 bus2=BUSMVFLX105.2 geometry=1FMV4CU3/0AAC_M length=0.8295 units=m  !1ph_basekV=19.9186
new line.MV1PFLX96 bus1=BUSMVFLX105.2 bus2=BUSMVFLX106.2 geometry=1FMV4CU3/0AAC_M length=1.2604 units=m  !1ph_basekV=19.9186
new line.MV1PFLX97 bus1=BUSMVFLX108.3 bus2=BUSMVFLX107.3 geometry=1FMV4CU3/0AAC_M length=0.7000 units=m  !1ph_basekV=19.9186
new line.MV1PFLX98 bus1=BUSMVFLX109.3 bus2=BUSMVFLX108.3 geometry=1FMV4CU3/0AAC_M length=1.7385 units=m  !1ph_basekV=19.9186
new line.MV1PFLX99 bus1=BUSMVFLX57.2 bus2=BUSMVFLX110.2 geometry=1FMV4CU3/0AAC_M length=2.4897 units=m  !1ph_basekV=19.9186
new line.MV3PFLX100 bus1=BUSMVFLX57.1.2.3 bus2=BUSMVFLX58.1.2.3 geometry=3FMV266AAC3/0AAC_H length=166.8502 units=m  !1ph_basekV=19.9186
new line.MV1PFLX101 bus1=BUSMVFLX110.2 bus2=BUSMVFLX111.2 geometry=1FMV4CU3/0AAC_M length=4.2522 units=m  !1ph_basekV=19.9186
new line.MV1PFLX102 bus1=BUSMVFLX113.3 bus2=BUSMVFLX112.3 geometry=1FMV4CU3/0AAC_M length=0.3107 units=m  !1ph_basekV=19.9186
new line.MV1PFLX103 bus1=BUSMVFLX113.3 bus2=BUSMVFLX114.3 geometry=1FMV3/0AAC3/0AAC_M length=2.7117 units=m  !1ph_basekV=19.9186
new line.MV1PFLX104 bus1=BUSMVFLX114.3 bus2=BUSMVFLX117.3 geometry=1FMV3/0AAC3/0AAC_M length=188.9133 units=m  !1ph_basekV=19.9186
new line.MV1PFLX105 bus1=BUSMVFLX58.2 bus2=BUSMVFLX115.2 geometry=1FMV4CU3/0AAC_M length=3.4224 units=m  !1ph_basekV=19.9186
new line.MV1PFLX106 bus1=BUSMVFLX115.2 bus2=BUSMVFLX116.2 geometry=1FMV4CU3/0AAC_M length=4.0439 units=m  !1ph_basekV=19.9186
new line.MV3PFLX107 bus1=BUSMVFLX58.1.2.3 bus2=BUSMVFLX62.1.2.3 geometry=3FMV266AAC3/0AAC_H length=145.0845 units=m  !1ph_basekV=19.9186
new line.MV3PFLX108 bus1=BUSMVFLX60.1.2.3 bus2=BUSMVFLX59.1.2.3 geometry=3FMV4CU3/0AAC_H length=1.3989 units=m  !1ph_basekV=19.9186
new line.MV3PFLX109 bus1=BUSMVFLX59.1.2.3 bus2=BUSMVFLX61.1.2.3 geometry=3FMV4CU3/0AAC_H length=1.7645 units=m  !1ph_basekV=19.9186
new line.MV3PFLX110 bus1=BUSMVFLX62.1.2.3 bus2=BUSMVFLX60.1.2.3 geometry=3FMV3/0AAC3/0AAC_H length=14.7976 units=m  !1ph_basekV=19.9186
new line.MV3PFLX111 bus1=BUSMVFLX62.1.2.3 bus2=BUSMVFLX65.1.2.3 geometry=3FMV266AAC3/0AAC_H length=89.3649 units=m  !1ph_basekV=19.9186
new line.MV1PFLX112 bus1=BUSMVFLX117.3 bus2=BUSMVFLX118.3 geometry=1FMV4CU3/0AAC_M length=3.1476 units=m  !1ph_basekV=19.9186
new line.MV1PFLX113 bus1=BUSMVFLX117.3 bus2=BUSMVFLX120.3 geometry=1FMV3/0AAC3/0AAC_M length=60.5494 units=m  !1ph_basekV=19.9186
new line.MV1PFLX114 bus1=BUSMVFLX118.3 bus2=BUSMVFLX119.3 geometry=1FMV4CU3/0AAC_M length=4.0573 units=m  !1ph_basekV=19.9186
new line.MV3PFLX115 bus1=BUSMVFLX64.1.2.3 bus2=BUSMVFLX63.1.2.3 geometry=3FMV3/0AAC3/0AAC_H length=0.9659 units=m  !1ph_basekV=19.9186
new line.MV3PFLX116 bus1=BUSMVFLX65.1.2.3 bus2=BUSMVFLX64.1.2.3 geometry=3FMV3/0AAC3/0AAC_H length=0.9160 units=m  !1ph_basekV=19.9186
new line.MV3PFLX117 bus1=BUSMVFLX65.1.2.3 bus2=BUSMVFLX66.1.2.3 geometry=3FMV266AAC3/0AAC_H length=0.3357 units=m  !1ph_basekV=19.9186
new line.MV3PFLX118 bus1=BUSMVFLX66.1.2.3 bus2=BUSMVFLX67.1.2.3 geometry=3FMV3/0AAC3/0AAC_H length=0.6846 units=m  !1ph_basekV=19.9186
new line.MV3PFLX119 bus1=BUSMVFLX66.1.2.3 bus2=BUSMVFLX68.1.2.3 geometry=3FMV266AAC3/0AAC_H length=43.4321 units=m  !1ph_basekV=19.9186
new line.MV1PFLX120 bus1=BUSMVFLX121.1 bus2=BUSMVFLX122.1 geometry=1FMV1/0CU_35EPR length=75.3949 units=m  !1ph_basekV=19.9186
new line.MV1PFLX121 bus1=BUSMVFLX122.1 bus2=BUSMVFLX123.1 geometry=1FMV1/0CU_35EPR length=58.1700 units=m  !1ph_basekV=19.9186
new line.MV1PFLX122 bus1=BUSMVFLX123.1 bus2=BUSMVFLX124.1 geometry=1FMV1/0CU_35EPR length=63.3363 units=m  !1ph_basekV=19.9186
