DSS/FLX_LinesLV.dss
new line.LV3FFLX1 bus1=BUSLVFLX33.1.2.3 bus2=BUSLVFLX28.1.2.3 Geometry=3FLV6AAC6AAC length=5.5690 units=m  !1ph_basekV=0.12  Group=N/A  
new line.LV1FFLX2 bus1=BUSLVFLX34.1.2 bus2=BUSLVFLX4.1.2 Linecode=TRPX6AAC length=4.6033 units=m  !1ph_basekV=0.12  Group=N/A  
new line.LV1FFLX3 bus1=BUSLVFLX35.1.2 bus2=BUSLVFLX2.1.2 Linecode=TRPX6AAC length=14.3556 units=m  !1ph_basekV=0.12  Group=N/A  
new line.LV3FFLX4 bus1=BUSLVFLX36.1.2.3 bus2=BUSLVFLX37.1.2.3 Geometry=3FLV6AAC6AAC length=120.7912 units=m  !1ph_basekV=0.12  Group=N/A  
new line.LV3FFLX5 bus1=BUSLVFLX37.1.2.3 bus2=BUSLVFLX29.1.2.3 Geometry=3FLV6AAC6AAC length=12.2707 units=m  !1ph_basekV=0.12  Group=N/A  
new line.LV3FFLX6 bus1=BUSLVFLX38.1.2.3 bus2=BUSLVFLX37.1.2.3 Geometry=3FLV6AAC6AAC length=135.0209 units=m  !1ph_basekV=0.12  Group=N/A  
new line.LV3FFLX7 bus1=BUSLVFLX1289.1.2.3 bus2=BUSLVFLX29.1.2.3 LineCode=3FLV250CU250CU_XLP length=3.4264 units=m  !1ph_basekV=0.12  Group=N/A  
new line.LV1FFLX8 bus1=BUSLVFLX39.1.2 bus2=BUSLVFLX40.1.2 Linecode=TRPX6AAC length=36.9059 units=m  !1ph_basekV=0.12  Group=N/A  
new line.LV1FFLX9 bus1=BUSLVFLX42.1.2 bus2=BUSLVFLX39.1.2 Geometry=1FLV3/0AAC3/0AAC length=29.7372 units=m  !1ph_basekV=0.12  Group=N/A  
new line.LV1FFLX10 bus1=BUSLVFLX41.1.2 bus2=BUSLVFLX42.1.2 Linecode=TRPX6AAC length=14.5629 units=m  !1ph_basekV=0.12  Group=N/A  
new line.LV1FFLX11 bus1=BUSLVFLX44.1.2 bus2=BUSLVFLX42.1.2 Geometry=1FLV3/0AAC3/0AAC length=68.9939 units=m  !1ph_basekV=0.12  Group=N/A  
new line.LV1FFLX12 bus1=BUSLVFLX43.1.2 bus2=BUSLVFLX44.1.2 Linecode=TRPX6AAC length=12.9112 units=m  !1ph_basekV=0.12  Group=N/A  
new line.LV1FFLX13 bus1=BUSLVFLX45.1.2 bus2=BUSLVFLX44.1.2 Geometry=1FLV3/0AAC3/0AAC length=6.0407 units=m  !1ph_basekV=0.12  Group=N/A  
new line.LV1FFLX14 bus1=BUSLVFLX46.1.2 bus2=BUSLVFLX45.1.2 Geometry=1FLV3/0AAC3/0AAC length=4.4006 units=m  !1ph_basekV=0.12  Group=N/A  
new line.LV1FFLX15 bus1=BUSLVFLX49.1.2 bus2=BUSLVFLX45.1.2 Linecode=TRPX2AAC length=8.6869 units=m  !1ph_basekV=0.12  Group=N/A  
new line.LV1FFLX16 bus1=BUSLVFLX47.1.2 bus2=BUSLVFLX46.1.2 Geometry=1FLV3/0AAC3/0AAC length=2.2930 units=m  !1ph_basekV=0.12  Group=N/A  
new line.LV1FFLX17 bus1=BUSLVFLX53.1.2 bus2=BUSLVFLX46.1.2 Linecode=TRPX2AAC length=6.9211 units=m  !1ph_basekV=0.12  Group=N/A  
new line.LV1FFLX18 bus1=BUSLVFLX48.1.2 bus2=BUSLVFLX47.1.2 Geometry=1FLV3/0AAC3/0AAC length=2.4637 units=m  !1ph_basekV=0.12  Group=N/A  
new line.LV1FFLX19 bus1=BUSLVFLX56.1.2 bus2=BUSLVFLX47.1.2 Linecode=TRPX6AAC length=6.4592 units=m  !1ph_basekV=0.12  Group=N/A  
new line.LV1FFLX20 bus1=BUSLVFLX52.1.2 bus2=BUSLVFLX48.1.2 Geometry=1FLV3/0AAC3/0AAC length=3.6720 units=m  !1ph_basekV=0.12  Group=N/A  
new line.LV1FFLX21 bus1=BUSLVFLX59.1.2 bus2=BUSLVFLX48.1.2 Linecode=TRPX4AAC length=6.2619 units=m  !1ph_basekV=0.12  Group=N/A  
new line.LV1FFLX22 bus1=BUSLVFLX50.1.2 bus2=BUSLVFLX49.1.2 Linecode=TRPX6AAC length=2.8793 units=m  !1ph_basekV=0.12  Group=N/A  
new line.LV1FFLX23 bus1=BUSLVFLX51.1.2 bus2=BUSLVFLX49.1.2 Linecode=TRPX6AAC length=3.4838 units=m  !1ph_basekV=0.12  Group=N/A  
new line.LV1FFLX24 bus1=BUSLVFLX54.1.2 bus2=BUSLVFLX49.1.2 Linecode=TRPX6AAC length=3.5857 units=m  !1ph_basekV=0.12  Group=N/A  
new line.LV1FFLX25 bus1=BUSLVFLX55.1.2 bus2=BUSLVFLX49.1.2 Linecode=TRPX6AAC length=2.6080 units=m  !1ph_basekV=0.12  Group=N/A  
new line.LV1FFLX26 bus1=BUSLVFLX58.1.2 bus2=BUSLVFLX52.1.2 Geometry=1FLV3/0AAC3/0AAC length=2.8736 units=m  !1ph_basekV=0.12  Group=N/A  
new line.LV1FFLX27 bus1=BUSLVFLX60.1.2 bus2=BUSLVFLX52.1.2 Linecode=TRPX6AAC length=5.9526 units=m  !1ph_basekV=0.12  Group=N/A  
new line.LV1FFLX28 bus1=BUSLVFLX57.1.2 bus2=BUSLVFLX58.1.2 Linecode=TRPX6AAC length=18.8612 units=m  !1ph_basekV=0.12  Group=N/A  
new line.LV1FFLX29 bus1=BUSLVFLX62.1.2 bus2=BUSLVFLX58.1.2 Geometry=1FLV3/0AAC3/0AAC length=10.5826 units=m  !1ph_basekV=0.12  Group=N/A  
new line.LV1FFLX30 bus1=BUSLVFLX61.1.2 bus2=BUSLVFLX62.1.2 Linecode=TRPX6AAC length=10.9250 units=m  !1ph_basekV=0.12  Group=N/A  
new line.LV1FFLX31 bus1=BUSLVFLX63.1.2 bus2=BUSLVFLX62.1.2 Geometry=1FLV3/0AAC3/0AAC length=5.9968 units=m  !1ph_basekV=0.12  Group=N/A  
new line.LV1FFLX32 bus1=BUSLVFLX65.1.2 bus2=BUSLVFLX63.1.2 Geometry=1FLV3/0AAC3/0AAC length=5.6286 units=m  !1ph_basekV=0.12  Group=N/A  
new line.LV1FFLX33 bus1=BUSLVFLX67.1.2 bus2=BUSLVFLX63.1.2 Linecode=TRPX6AAC length=10.5209 units=m  !1ph_basekV=0.12  Group=N/A  
new line.LV1FFLX34 bus1=BUSLVFLX64.1.2 bus2=BUSLVFLX65.1.2 Linecode=TRPX6AAC length=11.7958 units=m  !1ph_basekV=0.12  Group=N/A  
new line.LV1FFLX35 bus1=BUSLVFLX66.1.2 bus2=BUSLVFLX65.1.2 Geometry=1FLV3/0AAC3/0AAC length=5.3824 units=m  !1ph_basekV=0.12  Group=N/A  
new line.LV1FFLX36 bus1=BUSLVFLX69.1.2 bus2=BUSLVFLX66.1.2 Geometry=1FLV3/0AAC3/0AAC length=5.2143 units=m  !1ph_basekV=0.12  Group=N/A  
new line.LV1FFLX37 bus1=BUSLVFLX74.1.2 bus2=BUSLVFLX66.1.2 Linecode=TRPX6AAC length=11.0184 units=m  !1ph_basekV=0.12  Group=N/A  
new line.LV1FFLX38 bus1=BUSLVFLX68.1.2 bus2=BUSLVFLX69.1.2 Linecode=TRPX6AAC length=10.9942 units=m  !1ph_basekV=0.12  Group=N/A  
new line.LV1FFLX39 bus1=BUSLVFLX73.1.2 bus2=BUSLVFLX69.1.2 Geometry=1FLV3/0AAC3/0AAC length=3.8285 units=m  !1ph_basekV=0.12  Group=N/A  
new line.LV1FFLX40 bus1=BUSLVFLX70.1.2 bus2=BUSLVFLX71.1.2 Linecode=TRPX4AAC length=3.5046 units=m  !1ph_basekV=0.12  Group=N/A  
new line.LV1FFLX41 bus1=BUSLVFLX72.1.2 bus2=BUSLVFLX71.1.2 Linecode=TRPX4AAC length=3.1523 units=m  !1ph_basekV=0.12  Group=N/A  
new line.LV1FFLX42 bus1=BUSLVFLX71.1.2 bus2=BUSLVFLX79.1.2 Linecode=TRPX4AAC length=10.5122 units=m  !1ph_basekV=0.12  Group=N/A  
new line.LV1FFLX43 bus1=BUSLVFLX76.1.2 bus2=BUSLVFLX73.1.2 Geometry=1FLV3/0AAC3/0AAC length=7.1357 units=m  !1ph_basekV=0.12  Group=N/A  
new line.LV1FFLX44 bus1=BUSLVFLX78.1.2 bus2=BUSLVFLX73.1.2 Linecode=TRPX6AAC length=9.9673 units=m  !1ph_basekV=0.12  Group=N/A  
new line.LV1FFLX45 bus1=BUSLVFLX75.1.2 bus2=BUSLVFLX76.1.2 Linecode=TRPX6AAC length=14.6529 units=m  !1ph_basekV=0.12  Group=N/A  
new line.LV1FFLX46 bus1=BUSLVFLX77.1.2 bus2=BUSLVFLX76.1.2 Geometry=1FLV3/0AAC3/0AAC length=1.5680 units=m  !1ph_basekV=0.12  Group=N/A  
new line.LV1FFLX47 bus1=BUSLVFLX79.1.2 bus2=BUSLVFLX77.1.2 Geometry=1FLV3/0AAC3/0AAC length=3.4476 units=m  !1ph_basekV=0.12  Group=N/A  
new line.LV1FFLX48 bus1=BUSLVFLX80.1.2 bus2=BUSLVFLX77.1.2 Linecode=TRPX6AAC length=7.5035 units=m  !1ph_basekV=0.12  Group=N/A  
new line.LV1FFLX49 bus1=BUSLVFLX81.1.2 bus2=BUSLVFLX79.1.2 Geometry=1FLV3/0AAC3/0AAC length=5.5171 units=m  !1ph_basekV=0.12  Group=N/A  
new line.LV1FFLX50 bus1=BUSLVFLX83.1.2 bus2=BUSLVFLX81.1.2 Geometry=1FLV3/0AAC3/0AAC length=1.2140 units=m  !1ph_basekV=0.12  Group=N/A  
new line.LV1FFLX51 bus1=BUSLVFLX84.1.2 bus2=BUSLVFLX81.1.2 Linecode=TRPX4AAC length=7.3133 units=m  !1ph_basekV=0.12  Group=N/A  
new line.LV1FFLX52 bus1=BUSLVFLX82.1.2 bus2=BUSLVFLX83.1.2 Linecode=TRPX6AAC length=12.7187 units=m  !1ph_basekV=0.12  Group=N/A  
new line.LV1FFLX53 bus1=BUSLVFLX85.1.2 bus2=BUSLVFLX83.1.2 Geometry=1FLV3/0AAC3/0AAC length=10.1615 units=m  !1ph_basekV=0.12  Group=N/A  
new line.LV1FFLX54 bus1=BUSLVFLX87.1.2 bus2=BUSLVFLX85.1.2 Geometry=1FLV3/0AAC3/0AAC length=2.9899 units=m  !1ph_basekV=0.12  Group=N/A  
new line.LV1FFLX55 bus1=BUSLVFLX88.1.2 bus2=BUSLVFLX85.1.2 Linecode=TRPX6AAC length=9.5649 units=m  !1ph_basekV=0.12  Group=N/A  
new line.LV1FFLX56 bus1=BUSLVFLX86.1.2 bus2=BUSLVFLX87.1.2 Linecode=TRPX6AAC length=13.7389 units=m  !1ph_basekV=0.12  Group=N/A  
new line.LV1FFLX57 bus1=BUSLVFLX90.1.2 bus2=BUSLVFLX87.1.2 Geometry=1FLV3/0AAC3/0AAC length=10.5629 units=m  !1ph_basekV=0.12  Group=N/A  
new line.LV1FFLX58 bus1=BUSLVFLX89.1.2 bus2=BUSLVFLX90.1.2 Linecode=TRPX6AAC length=11.6077 units=m  !1ph_basekV=0.12  Group=N/A  
new line.LV1FFLX59 bus1=BUSLVFLX91.1.2 bus2=BUSLVFLX90.1.2 Geometry=1FLV3/0AAC3/0AAC length=16.6857 units=m  !1ph_basekV=0.12  Group=N/A  
new line.LV1FFLX60 bus1=BUSLVFLX93.1.2 bus2=BUSLVFLX91.1.2 Geometry=1FLV3/0AAC3/0AAC length=2.1720 units=m  !1ph_basekV=0.12  Group=N/A  
new line.LV1FFLX61 bus1=BUSLVFLX108.1.2 bus2=BUSLVFLX91.1.2 Linecode=TRPX4AAC length=8.2625 units=m  !1ph_basekV=0.12  Group=N/A  
new line.LV1FFLX62 bus1=BUSLVFLX92.1.2 bus2=BUSLVFLX93.1.2 Linecode=TRPX6AAC length=16.5038 units=m  !1ph_basekV=0.12  Group=N/A  
new line.LV1FFLX63 bus1=BUSLVFLX142.1.2 bus2=BUSLVFLX93.1.2 Geometry=1FLV3/0AAC3/0AAC length=20.3785 units=m  !1ph_basekV=0.12  Group=N/A  
new line.LV1FFLX64 bus1=BUSLVFLX94.1.2 bus2=BUSLVFLX95.1.2 Linecode=TRPX6AAC length=0.9998 units=m  !1ph_basekV=0.12  Group=N/A  
new line.LV1FFLX65 bus1=BUSLVFLX95.1.2 bus2=BUSLVFLX97.1.2 Linecode=TRPX6AAC length=0.4834 units=m  !1ph_basekV=0.12  Group=N/A  
new line.LV1FFLX66 bus1=BUSLVFLX96.1.2 bus2=BUSLVFLX97.1.2 Linecode=TRPX6AAC length=1.0000 units=m  !1ph_basekV=0.12  Group=N/A  
new line.LV1FFLX67 bus1=BUSLVFLX97.1.2 bus2=BUSLVFLX98.1.2 Linecode=TRPX6AAC length=0.4944 units=m  !1ph_basekV=0.12  Group=N/A  
new line.LV1FFLX68 bus1=BUSLVFLX99.1.2 bus2=BUSLVFLX98.1.2 Linecode=TRPX6AAC length=1.0000 units=m  !1ph_basekV=0.12  Group=N/A  
new line.LV1FFLX69 bus1=BUSLVFLX98.1.2 bus2=BUSLVFLX101.1.2 Linecode=TRPX6AAC length=0.5065 units=m  !1ph_basekV=0.12  Group=N/A  
new line.LV1FFLX70 bus1=BUSLVFLX100.1.2 bus2=BUSLVFLX101.1.2 Linecode=TRPX6AAC length=0.9999 units=m  !1ph_basekV=0.12  Group=N/A  
new line.LV1FFLX71 bus1=BUSLVFLX101.1.2 bus2=BUSLVFLX102.1.2 Linecode=TRPX6AAC length=0.4995 units=m  !1ph_basekV=0.12  Group=N/A  
new line.LV1FFLX72 bus1=BUSLVFLX103.1.2 bus2=BUSLVFLX102.1.2 Linecode=TRPX6AAC length=1.0000 units=m  !1ph_basekV=0.12  Group=N/A  
new line.LV1FFLX73 bus1=BUSLVFLX102.1.2 bus2=BUSLVFLX105.1.2 Linecode=TRPX6AAC length=0.5055 units=m  !1ph_basekV=0.12  Group=N/A  
new line.LV1FFLX74 bus1=BUSLVFLX104.1.2 bus2=BUSLVFLX105.1.2 Linecode=TRPX6AAC length=1.0000 units=m  !1ph_basekV=0.12  Group=N/A  
new line.LV1FFLX75 bus1=BUSLVFLX105.1.2 bus2=BUSLVFLX106.1.2 Linecode=TRPX6AAC length=0.4995 units=m  !1ph_basekV=0.12  Group=N/A  
new line.LV1FFLX76 bus1=BUSLVFLX107.1.2 bus2=BUSLVFLX106.1.2 Linecode=TRPX6AAC length=0.9999 units=m  !1ph_basekV=0.12  Group=N/A  
new line.LV1FFLX77 bus1=BUSLVFLX106.1.2 bus2=BUSLVFLX110.1.2 Linecode=TRPX6AAC length=0.4934 units=m  !1ph_basekV=0.12  Group=N/A  
new line.LV1FFLX78 bus1=BUSLVFLX109.1.2 bus2=BUSLVFLX110.1.2 Linecode=TRPX6AAC length=1.0000 units=m  !1ph_basekV=0.12  Group=N/A  
new line.LV1FFLX79 bus1=BUSLVFLX110.1.2 bus2=BUSLVFLX114.1.2 Linecode=TRPX6AAC length=0.5075 units=m  !1ph_basekV=0.12  Group=N/A  
new line.LV1FFLX80 bus1=BUSLVFLX111.1.2 bus2=BUSLVFLX112.1.2 Linecode=TRPX6AAC length=4.1483 units=m  !1ph_basekV=0.12  Group=N/A  
new line.LV1FFLX81 bus1=BUSLVFLX113.1.2 bus2=BUSLVFLX112.1.2 Geometry=1FLV3/0AAC3/0AAC length=0.3592 units=m  !1ph_basekV=0.12  Group=N/A  
new line.LV1FFLX82 bus1=BUSLVFLX112.1.2 bus2=BUSLVFLX118.1.2 Linecode=TRPX6AAC length=0.8503 units=m  !1ph_basekV=0.12  Group=N/A  
new line.LV1FFLX83 bus1=BUSLVFLX112.1.2 bus2=BUSLVFLX122.1.2 Geometry=1FLV3/0AAC3/0AAC length=6.4127 units=m  !1ph_basekV=0.12  Group=N/A  
new line.LV1FFLX84 bus1=BUSLVFLX115.1.2 bus2=BUSLVFLX114.1.2 Linecode=TRPX6AAC length=0.9999 units=m  !1ph_basekV=0.12  Group=N/A  
new line.LV1FFLX85 bus1=BUSLVFLX114.1.2 bus2=BUSLVFLX117.1.2 Linecode=TRPX6AAC length=0.4954 units=m  !1ph_basekV=0.12  Group=N/A  
new line.LV1FFLX86 bus1=BUSLVFLX116.1.2 bus2=BUSLVFLX117.1.2 Linecode=TRPX6AAC length=1.0000 units=m  !1ph_basekV=0.12  Group=N/A  
new line.LV1FFLX87 bus1=BUSLVFLX117.1.2 bus2=BUSLVFLX119.1.2 Linecode=TRPX6AAC length=0.5005 units=m  !1ph_basekV=0.12  Group=N/A  
new line.LV1FFLX88 bus1=BUSLVFLX133.1.2 bus2=BUSLVFLX118.1.2 Linecode=TRPX2AAC length=6.0481 units=m  !1ph_basekV=0.12  Group=N/A  
new line.LV1FFLX89 bus1=BUSLVFLX120.1.2 bus2=BUSLVFLX119.1.2 Linecode=TRPX6AAC length=1.0000 units=m  !1ph_basekV=0.12  Group=N/A  
new line.LV1FFLX90 bus1=BUSLVFLX119.1.2 bus2=BUSLVFLX125.1.2 Linecode=TRPX6AAC length=1.0140 units=m  !1ph_basekV=0.12  Group=N/A  
new line.LV1FFLX91 bus1=BUSLVFLX121.1.2 bus2=BUSLVFLX122.1.2 Linecode=TRPX6AAC length=4.4314 units=m  !1ph_basekV=0.12  Group=N/A  
new line.LV1FFLX92 bus1=BUSLVFLX122.1.2 bus2=BUSLVFLX123.1.2 Geometry=1FLV3/0AAC3/0AAC length=0.5910 units=m  !1ph_basekV=0.12  Group=N/A  
new line.LV1FFLX93 bus1=BUSLVFLX122.1.2 bus2=BUSLVFLX124.1.2 Linecode=TRPX6AAC length=0.3663 units=m  !1ph_basekV=0.12  Group=N/A  
new line.LV1FFLX94 bus1=BUSLVFLX123.1.2 bus2=BUSLVFLX126.1.2 Geometry=1FLV3/0AAC3/0AAC length=4.0562 units=m  !1ph_basekV=0.12  Group=N/A  
new line.LV1FFLX95 bus1=BUSLVFLX141.1.2 bus2=BUSLVFLX123.1.2 Linecode=TRPX6AAC length=6.6110 units=m  !1ph_basekV=0.12  Group=N/A  
new line.LV1FFLX96 bus1=BUSLVFLX125.1.2 bus2=BUSLVFLX21.1.2 Linecode=TRPX2AAC length=5.8168 units=m  !1ph_basekV=0.12  Group=N/A  
new line.LV1FFLX97 bus1=BUSLVFLX126.1.2 bus2=BUSLVFLX128.1.2 Geometry=1FLV3/0AAC3/0AAC length=1.9582 units=m  !1ph_basekV=0.12  Group=N/A  
new line.LV1FFLX98 bus1=BUSLVFLX144.1.2 bus2=BUSLVFLX126.1.2 Linecode=TRPX6AAC length=5.6798 units=m  !1ph_basekV=0.12  Group=N/A  
new line.LV1FFLX99 bus1=BUSLVFLX127.1.2 bus2=BUSLVFLX128.1.2 Linecode=TRPX6AAC length=5.4799 units=m  !1ph_basekV=0.12  Group=N/A  
new line.LV1FFLX100 bus1=BUSLVFLX128.1.2 bus2=BUSLVFLX129.1.2 Geometry=1FLV3/0AAC3/0AAC length=2.1823 units=m  !1ph_basekV=0.12  Group=N/A  
new line.LV1FFLX101 bus1=BUSLVFLX129.1.2 bus2=BUSLVFLX130.1.2 Geometry=1FLV3/0AAC3/0AAC length=2.0072 units=m  !1ph_basekV=0.12  Group=N/A  
new line.LV1FFLX102 bus1=BUSLVFLX150.1.2 bus2=BUSLVFLX129.1.2 Linecode=TRPX6AAC length=5.8299 units=m  !1ph_basekV=0.12  Group=N/A  
new line.LV1FFLX103 bus1=BUSLVFLX130.1.2 bus2=BUSLVFLX132.1.2 Geometry=1FLV3/0AAC3/0AAC length=5.3849 units=m  !1ph_basekV=0.12  Group=N/A  
new line.LV1FFLX104 bus1=BUSLVFLX143.1.2 bus2=BUSLVFLX130.1.2 Linecode=TRPX2AAC length=4.0705 units=m  !1ph_basekV=0.12  Group=N/A  
new line.LV1FFLX105 bus1=BUSLVFLX131.1.2 bus2=BUSLVFLX132.1.2 Linecode=TRPX6AAC length=6.0303 units=m  !1ph_basekV=0.12  Group=N/A  
new line.LV1FFLX106 bus1=BUSLVFLX132.1.2 bus2=BUSLVFLX135.1.2 Geometry=1FLV3/0AAC3/0AAC length=8.8685 units=m  !1ph_basekV=0.12  Group=N/A  
new line.LV1FFLX107 bus1=BUSLVFLX134.1.2 bus2=BUSLVFLX135.1.2 Linecode=TRPX6AAC length=5.4727 units=m  !1ph_basekV=0.12  Group=N/A  
new line.LV1FFLX108 bus1=BUSLVFLX135.1.2 bus2=BUSLVFLX136.1.2 Geometry=1FLV3/0AAC3/0AAC length=0.5232 units=m  !1ph_basekV=0.12  Group=N/A  
new line.LV1FFLX109 bus1=BUSLVFLX136.1.2 bus2=BUSLVFLX137.1.2 Geometry=1FLV3/0AAC3/0AAC length=2.8031 units=m  !1ph_basekV=0.12  Group=N/A  
new line.LV1FFLX110 bus1=BUSLVFLX167.1.2 bus2=BUSLVFLX136.1.2 Linecode=TRPX6AAC length=10.5331 units=m  !1ph_basekV=0.12  Group=N/A  
new line.LV1FFLX111 bus1=BUSLVFLX137.1.2 bus2=BUSLVFLX138.1.2 Geometry=1FLV3/0AAC3/0AAC length=6.9196 units=m  !1ph_basekV=0.12  Group=N/A  
new line.LV1FFLX112 bus1=BUSLVFLX168.1.2 bus2=BUSLVFLX137.1.2 Linecode=TRPX2AAC length=9.6799 units=m  !1ph_basekV=0.12  Group=N/A  
new line.LV1FFLX113 bus1=BUSLVFLX138.1.2 bus2=BUSLVFLX140.1.2 Geometry=1FLV3/0AAC3/0AAC length=0.5843 units=m  !1ph_basekV=0.12  Group=N/A  
new line.LV1FFLX114 bus1=BUSLVFLX164.1.2 bus2=BUSLVFLX138.1.2 Linecode=TRPX6AAC length=5.4190 units=m  !1ph_basekV=0.12  Group=N/A  
new line.LV1FFLX115 bus1=BUSLVFLX139.1.2 bus2=BUSLVFLX140.1.2 Linecode=TRPX6AAC length=6.0779 units=m  !1ph_basekV=0.12  Group=N/A  
new line.LV1FFLX116 bus1=BUSLVFLX140.1.2 bus2=BUSLVFLX146.1.2 Geometry=1FLV3/0AAC3/0AAC length=5.1341 units=m  !1ph_basekV=0.12  Group=N/A  
new line.LV1FFLX117 bus1=BUSLVFLX147.1.2 bus2=BUSLVFLX142.1.2 Geometry=1FLV3/0AAC3/0AAC length=1.5926 units=m  !1ph_basekV=0.12  Group=N/A  
new line.LV1FFLX118 bus1=BUSLVFLX142.1.2 bus2=BUSLVFLX22.1.2 Geometry=1FLV3/0CU3/0CU length=6.6670 units=m  !1ph_basekV=0.12  Group=N/A  
new line.LV1FFLX119 bus1=BUSLVFLX154.1.2 bus2=BUSLVFLX143.1.2 Linecode=TRPX2AAC length=2.8780 units=m  !1ph_basekV=0.12  Group=N/A  
new line.LV1FFLX120 bus1=BUSLVFLX155.1.2 bus2=BUSLVFLX143.1.2 Linecode=TRPX2AAC length=2.8851 units=m  !1ph_basekV=0.12  Group=N/A  
new line.LV1FFLX121 bus1=BUSLVFLX145.1.2 bus2=BUSLVFLX146.1.2 Linecode=TRPX6AAC length=6.7128 units=m  !1ph_basekV=0.12  Group=N/A  
new line.LV1FFLX122 bus1=BUSLVFLX146.1.2 bus2=BUSLVFLX148.1.2 Geometry=1FLV3/0AAC3/0AAC length=2.5990 units=m  !1ph_basekV=0.12  Group=N/A  
new line.LV1FFLX123 bus1=BUSLVFLX149.1.2 bus2=BUSLVFLX147.1.2 Geometry=1FLV3/0AAC3/0AAC length=1.0477 units=m  !1ph_basekV=0.12  Group=N/A  
new line.LV1FFLX124 bus1=BUSLVFLX148.1.2 bus2=BUSLVFLX151.1.2 Geometry=1FLV3/0AAC3/0AAC length=2.1873 units=m  !1ph_basekV=0.12  Group=N/A  
new line.LV1FFLX125 bus1=BUSLVFLX170.1.2 bus2=BUSLVFLX148.1.2 Linecode=TRPX6AAC length=11.0344 units=m  !1ph_basekV=0.12  Group=N/A  
new line.LV1FFLX126 bus1=BUSLVFLX166.1.2 bus2=BUSLVFLX149.1.2 Geometry=1FLV3/0AAC3/0AAC length=43.1199 units=m  !1ph_basekV=0.12  Group=N/A  
new line.LV1FFLX127 bus1=BUSLVFLX149.1.2 bus2=BUSLVFLX186.1.2 Geometry=1FLV3/0AAC3/0AAC length=52.6582 units=m  !1ph_basekV=0.12  Group=N/A  
new line.LV1FFLX128 bus1=BUSLVFLX151.1.2 bus2=BUSLVFLX152.1.2 Geometry=1FLV3/0AAC3/0AAC length=2.6180 units=m  !1ph_basekV=0.12  Group=N/A  
new line.LV1FFLX129 bus1=BUSLVFLX171.1.2 bus2=BUSLVFLX151.1.2 Linecode=TRPX6AAC length=11.8905 units=m  !1ph_basekV=0.12  Group=N/A  
new line.LV1FFLX130 bus1=BUSLVFLX152.1.2 bus2=BUSLVFLX153.1.2 Geometry=1FLV3/0AAC3/0AAC length=2.4840 units=m  !1ph_basekV=0.12  Group=N/A  
new line.LV1FFLX131 bus1=BUSLVFLX173.1.2 bus2=BUSLVFLX152.1.2 Linecode=TRPX6AAC length=11.6392 units=m  !1ph_basekV=0.12  Group=N/A  
new line.LV1FFLX132 bus1=BUSLVFLX153.1.2 bus2=BUSLVFLX156.1.2 Geometry=1FLV3/0AAC3/0AAC length=1.8722 units=m  !1ph_basekV=0.12  Group=N/A  
new line.LV1FFLX133 bus1=BUSLVFLX177.1.2 bus2=BUSLVFLX153.1.2 Linecode=TRPX6AAC length=12.3971 units=m  !1ph_basekV=0.12  Group=N/A  
new line.LV1FFLX134 bus1=BUSLVFLX156.1.2 bus2=BUSLVFLX158.1.2 Geometry=1FLV3/0AAC3/0AAC length=1.0554 units=m  !1ph_basekV=0.12  Group=N/A  
new line.LV1FFLX135 bus1=BUSLVFLX176.1.2 bus2=BUSLVFLX156.1.2 Linecode=TRPX6AAC length=11.8013 units=m  !1ph_basekV=0.12  Group=N/A  
new line.LV1FFLX136 bus1=BUSLVFLX157.1.2 bus2=BUSLVFLX158.1.2 Linecode=TRPX2AAC length=8.0160 units=m  !1ph_basekV=0.12  Group=N/A  
new line.LV1FFLX137 bus1=BUSLVFLX158.1.2 bus2=BUSLVFLX159.1.2 Geometry=1FLV3/0AAC3/0AAC length=0.7339 units=m  !1ph_basekV=0.12  Group=N/A  
new line.LV1FFLX138 bus1=BUSLVFLX159.1.2 bus2=BUSLVFLX160.1.2 Geometry=1FLV3/0AAC3/0AAC length=3.5643 units=m  !1ph_basekV=0.12  Group=N/A  
new line.LV1FFLX139 bus1=BUSLVFLX175.1.2 bus2=BUSLVFLX159.1.2 Linecode=TRPX6AAC length=11.4977 units=m  !1ph_basekV=0.12  Group=N/A  
new line.LV1FFLX140 bus1=BUSLVFLX160.1.2 bus2=BUSLVFLX161.1.2 Geometry=1FLV3/0AAC3/0AAC length=2.4537 units=m  !1ph_basekV=0.12  Group=N/A  
new line.LV1FFLX141 bus1=BUSLVFLX181.1.2 bus2=BUSLVFLX160.1.2 Linecode=TRPX6AAC length=12.5439 units=m  !1ph_basekV=0.12  Group=N/A  
new line.LV1FFLX142 bus1=BUSLVFLX161.1.2 bus2=BUSLVFLX162.1.2 Geometry=1FLV3/0AAC3/0AAC length=5.5503 units=m  !1ph_basekV=0.12  Group=N/A  
new line.LV1FFLX143 bus1=BUSLVFLX178.1.2 bus2=BUSLVFLX161.1.2 Linecode=TRPX6AAC length=11.8460 units=m  !1ph_basekV=0.12  Group=N/A  
new line.LV1FFLX144 bus1=BUSLVFLX162.1.2 bus2=BUSLVFLX163.1.2 Geometry=1FLV3/0AAC3/0AAC length=3.4670 units=m  !1ph_basekV=0.12  Group=N/A  
new line.LV1FFLX145 bus1=BUSLVFLX169.1.2 bus2=BUSLVFLX162.1.2 Linecode=TRPX2AAC length=7.0154 units=m  !1ph_basekV=0.12  Group=N/A  
new line.LV1FFLX146 bus1=BUSLVFLX163.1.2 bus2=BUSLVFLX165.1.2 Geometry=1FLV3/0AAC3/0AAC length=3.5765 units=m  !1ph_basekV=0.12  Group=N/A  
new line.LV1FFLX147 bus1=BUSLVFLX182.1.2 bus2=BUSLVFLX163.1.2 Linecode=TRPX6AAC length=11.4745 units=m  !1ph_basekV=0.12  Group=N/A  
new line.LV1FFLX148 bus1=BUSLVFLX165.1.2 bus2=BUSLVFLX166.1.2 Geometry=1FLV3/0AAC3/0AAC length=1.7606 units=m  !1ph_basekV=0.12  Group=N/A  
new line.LV1FFLX149 bus1=BUSLVFLX180.1.2 bus2=BUSLVFLX165.1.2 Linecode=TRPX6AAC length=11.0150 units=m  !1ph_basekV=0.12  Group=N/A  
new line.LV1FFLX150 bus1=BUSLVFLX184.1.2 bus2=BUSLVFLX166.1.2 Linecode=TRPX6AAC length=15.1829 units=m  !1ph_basekV=0.12  Group=N/A  
new line.LV1FFLX151 bus1=BUSLVFLX179.1.2 bus2=BUSLVFLX169.1.2 Linecode=TRPX2AAC length=4.6812 units=m  !1ph_basekV=0.12  Group=N/A  
new line.LV1FFLX152 bus1=BUSLVFLX183.1.2 bus2=BUSLVFLX169.1.2 Linecode=TRPX2AAC length=5.4489 units=m  !1ph_basekV=0.12  Group=N/A  
new line.LV1FFLX153 bus1=BUSLVFLX172.1.2 bus2=BUSLVFLX170.1.2 Linecode=TRPX6AAC length=2.3676 units=m  !1ph_basekV=0.12  Group=N/A  
new line.LV1FFLX154 bus1=BUSLVFLX174.1.2 bus2=BUSLVFLX170.1.2 Linecode=TRPX6AAC length=2.7600 units=m  !1ph_basekV=0.12  Group=N/A  
new line.LV1FFLX155 bus1=BUSLVFLX185.1.2 bus2=BUSLVFLX186.1.2 Linecode=TRPX6AAC length=26.9330 units=m  !1ph_basekV=0.12  Group=N/A  
new line.LV1FFLX156 bus1=BUSLVFLX187.1.2 bus2=BUSLVFLX188.1.2 Geometry=1FLV3/0AAC3/0AAC length=9.7713 units=m  !1ph_basekV=0.12  Group=N/A  
new line.LV1FFLX157 bus1=BUSLVFLX188.1.2 bus2=BUSLVFLX196.1.2 Geometry=1FLV3/0AAC3/0AAC length=8.0763 units=m  !1ph_basekV=0.12  Group=N/A  
new line.LV1FFLX158 bus1=BUSLVFLX198.1.2 bus2=BUSLVFLX188.1.2 Linecode=TRPX6AAC length=9.1073 units=m  !1ph_basekV=0.12  Group=N/A  
new line.LV1FFLX159 bus1=BUSLVFLX189.1.2 bus2=BUSLVFLX190.1.2 Linecode=TRPX6AAC length=1.7148 units=m  !1ph_basekV=0.12  Group=N/A  
new line.LV1FFLX160 bus1=BUSLVFLX191.1.2 bus2=BUSLVFLX190.1.2 Linecode=TRPX6AAC length=1.7390 units=m  !1ph_basekV=0.12  Group=N/A  
new line.LV1FFLX161 bus1=BUSLVFLX192.1.2 bus2=BUSLVFLX190.1.2 Linecode=TRPX6AAC length=2.0902 units=m  !1ph_basekV=0.12  Group=N/A  
new line.LV1FFLX162 bus1=BUSLVFLX193.1.2 bus2=BUSLVFLX190.1.2 Linecode=TRPX6AAC length=1.8467 units=m  !1ph_basekV=0.12  Group=N/A  
new line.LV1FFLX163 bus1=BUSLVFLX194.1.2 bus2=BUSLVFLX190.1.2 Linecode=TRPX6AAC length=1.6326 units=m  !1ph_basekV=0.12  Group=N/A  
new line.LV1FFLX164 bus1=BUSLVFLX195.1.2 bus2=BUSLVFLX190.1.2 Linecode=TRPX6AAC length=1.5066 units=m  !1ph_basekV=0.12  Group=N/A  
new line.LV1FFLX165 bus1=BUSLVFLX190.1.2 bus2=BUSLVFLX23.1.2 Linecode=TRPX6AAC length=10.8900 units=m  !1ph_basekV=0.12  Group=N/A  
new line.LV1FFLX166 bus1=BUSLVFLX196.1.2 bus2=BUSLVFLX197.1.2 Geometry=1FLV3/0AAC3/0AAC length=9.6218 units=m  !1ph_basekV=0.12  Group=N/A  
new line.LV1FFLX167 bus1=BUSLVFLX200.1.2 bus2=BUSLVFLX196.1.2 Linecode=TRPX6AAC length=9.3716 units=m  !1ph_basekV=0.12  Group=N/A  
new line.LV1FFLX168 bus1=BUSLVFLX197.1.2 bus2=BUSLVFLX199.1.2 Geometry=1FLV3/0AAC3/0AAC length=7.7307 units=m  !1ph_basekV=0.12  Group=N/A  
new line.LV1FFLX169 bus1=BUSLVFLX202.1.2 bus2=BUSLVFLX197.1.2 Linecode=TRPX6AAC length=9.6950 units=m  !1ph_basekV=0.12  Group=N/A  
new line.LV1FFLX170 bus1=BUSLVFLX199.1.2 bus2=BUSLVFLX201.1.2 Geometry=1FLV3/0AAC3/0AAC length=5.2500 units=m  !1ph_basekV=0.12  Group=N/A  
new line.LV1FFLX171 bus1=BUSLVFLX205.1.2 bus2=BUSLVFLX199.1.2 Linecode=TRPX6AAC length=10.7832 units=m  !1ph_basekV=0.12  Group=N/A  
new line.LV1FFLX172 bus1=BUSLVFLX201.1.2 bus2=BUSLVFLX203.1.2 Geometry=1FLV3/0AAC3/0AAC length=7.6860 units=m  !1ph_basekV=0.12  Group=N/A  
new line.LV1FFLX173 bus1=BUSLVFLX211.1.2 bus2=BUSLVFLX201.1.2 Linecode=TRPX6AAC length=14.2998 units=m  !1ph_basekV=0.12  Group=N/A  
new line.LV1FFLX174 bus1=BUSLVFLX203.1.2 bus2=BUSLVFLX204.1.2 Geometry=1FLV3/0AAC3/0AAC length=2.5574 units=m  !1ph_basekV=0.12  Group=N/A  
new line.LV1FFLX175 bus1=BUSLVFLX212.1.2 bus2=BUSLVFLX203.1.2 Linecode=TRPX6AAC length=12.1180 units=m  !1ph_basekV=0.12  Group=N/A  
new line.LV1FFLX176 bus1=BUSLVFLX204.1.2 bus2=BUSLVFLX206.1.2 Geometry=1FLV3/0AAC3/0AAC length=3.8928 units=m  !1ph_basekV=0.12  Group=N/A  
new line.LV1FFLX177 bus1=BUSLVFLX217.1.2 bus2=BUSLVFLX204.1.2 Linecode=TRPX6AAC length=14.5078 units=m  !1ph_basekV=0.12  Group=N/A  
new line.LV1FFLX178 bus1=BUSLVFLX207.1.2 bus2=BUSLVFLX206.1.2 Linecode=TRPX6AAC length=10.7915 units=m  !1ph_basekV=0.12  Group=N/A  
new line.LV1FFLX179 bus1=BUSLVFLX206.1.2 bus2=BUSLVFLX208.1.2 Geometry=1FLV3/0AAC3/0AAC length=1.6485 units=m  !1ph_basekV=0.12  Group=N/A  
new line.LV1FFLX180 bus1=BUSLVFLX208.1.2 bus2=BUSLVFLX209.1.2 Geometry=1FLV3/0AAC3/0AAC length=2.0076 units=m  !1ph_basekV=0.12  Group=N/A  
new line.LV1FFLX181 bus1=BUSLVFLX219.1.2 bus2=BUSLVFLX208.1.2 Linecode=TRPX6AAC length=14.5515 units=m  !1ph_basekV=0.12  Group=N/A  
new line.LV1FFLX182 bus1=BUSLVFLX209.1.2 bus2=BUSLVFLX210.1.2 Geometry=1FLV3/0AAC3/0AAC length=2.4957 units=m  !1ph_basekV=0.12  Group=N/A  
new line.LV1FFLX183 bus1=BUSLVFLX224.1.2 bus2=BUSLVFLX209.1.2 Linecode=TRPX6AAC length=14.4201 units=m  !1ph_basekV=0.12  Group=N/A  
new line.LV1FFLX184 bus1=BUSLVFLX210.1.2 bus2=BUSLVFLX213.1.2 Geometry=1FLV3/0AAC3/0AAC length=4.2351 units=m  !1ph_basekV=0.12  Group=N/A  
new line.LV1FFLX185 bus1=BUSLVFLX222.1.2 bus2=BUSLVFLX210.1.2 Linecode=TRPX6AAC length=11.9310 units=m  !1ph_basekV=0.12  Group=N/A  
new line.LV1FFLX186 bus1=BUSLVFLX213.1.2 bus2=BUSLVFLX214.1.2 Geometry=1FLV3/0AAC3/0AAC length=1.4201 units=m  !1ph_basekV=0.12  Group=N/A  
new line.LV1FFLX187 bus1=BUSLVFLX226.1.2 bus2=BUSLVFLX213.1.2 Linecode=TRPX6AAC length=11.8837 units=m  !1ph_basekV=0.12  Group=N/A  
new line.LV1FFLX188 bus1=BUSLVFLX215.1.2 bus2=BUSLVFLX214.1.2 Linecode=TRPX6AAC length=9.4287 units=m  !1ph_basekV=0.12  Group=N/A  
new line.LV1FFLX189 bus1=BUSLVFLX214.1.2 bus2=BUSLVFLX216.1.2 Geometry=1FLV3/0AAC3/0AAC length=3.3502 units=m  !1ph_basekV=0.12  Group=N/A  
new line.LV1FFLX190 bus1=BUSLVFLX216.1.2 bus2=BUSLVFLX218.1.2 Geometry=1FLV3/0AAC3/0AAC length=4.9152 units=m  !1ph_basekV=0.12  Group=N/A  
new line.LV1FFLX191 bus1=BUSLVFLX225.1.2 bus2=BUSLVFLX216.1.2 Linecode=TRPX4AAC length=8.7688 units=m  !1ph_basekV=0.12  Group=N/A  
new line.LV1FFLX192 bus1=BUSLVFLX218.1.2 bus2=BUSLVFLX220.1.2 Geometry=1FLV3/0AAC3/0AAC length=2.9920 units=m  !1ph_basekV=0.12  Group=N/A  
new line.LV1FFLX193 bus1=BUSLVFLX232.1.2 bus2=BUSLVFLX218.1.2 Linecode=TRPX6AAC length=11.3071 units=m  !1ph_basekV=0.12  Group=N/A  
new line.LV1FFLX194 bus1=BUSLVFLX221.1.2 bus2=BUSLVFLX220.1.2 Linecode=TRPX6AAC length=8.5951 units=m  !1ph_basekV=0.12  Group=N/A  
new line.LV1FFLX195 bus1=BUSLVFLX220.1.2 bus2=BUSLVFLX223.1.2 Geometry=1FLV3/0AAC3/0AAC length=1.4734 units=m  !1ph_basekV=0.12  Group=N/A  
new line.LV1FFLX196 bus1=BUSLVFLX223.1.2 bus2=BUSLVFLX227.1.2 Geometry=1FLV3/0AAC3/0AAC length=6.6159 units=m  !1ph_basekV=0.12  Group=N/A  
new line.LV1FFLX197 bus1=BUSLVFLX235.1.2 bus2=BUSLVFLX223.1.2 Linecode=TRPX6AAC length=11.0307 units=m  !1ph_basekV=0.12  Group=N/A  
new line.LV1FFLX198 bus1=BUSLVFLX228.1.2 bus2=BUSLVFLX225.1.2 Linecode=TRPX4AAC length=2.9293 units=m  !1ph_basekV=0.12  Group=N/A  
new line.LV1FFLX199 bus1=BUSLVFLX229.1.2 bus2=BUSLVFLX225.1.2 Linecode=TRPX4AAC length=3.2184 units=m  !1ph_basekV=0.12  Group=N/A  
new line.LV1FFLX200 bus1=BUSLVFLX230.1.2 bus2=BUSLVFLX225.1.2 Linecode=TRPX4AAC length=3.4704 units=m  !1ph_basekV=0.12  Group=N/A  
...
